
        FoamFile {
            version     2.0;
            format      ascii;
            class       dictionary;
            object      blockMeshDict;
        }
        
        convertToMeters 1;
        
        vertices
        (
            (0 0 0)                   // 0
            (0.066 0 0)             // 1
            (0.066 0.0075 0) // 2
            (0 0.0073 0)       // 3
            (0 0 0.0073)       // 4
            (0.066 0 0.0075) // 5
            (0.066 0.0075 0.0075) // 6
            (0 0.0073 0.0073) // 7
        );
        
        blocks
        (
            hex (0 1 2 3 4 5 6 7) (50 20 20) simpleGrading (1 1 1)
        );
        
        edges
        (
        );
        
        boundary
        (
            inlet
            {
                type patch;
                faces
                (
                    (3 7 4 0)
                    (0 4 5 1)
                    (1 5 6 2)
                    (2 6 7 3)
                );
            }
            outlet
            {
                type patch;
                faces
                (
                    (4 7 6 5)
                );
            }
            walls
            {
                type wall;
                faces
                (
                    (0 3 2 1)
                    (0 1 5 4)
                    (1 2 6 5)
                    (2 3 7 6)
                    (3 0 4 7)
                );
            }
        );
        
        mergePatchPairs
        (
        );
        